LTspice 24.0.12 for Windows
Circuit: * C:\Users\Dell\Documents\LTspice\projects\AC_analysis\AC_analysis.asc
Start Time: Sat Jun 14 12:44:36 2025
solver = Normal
Maximum thread count: 4
tnom = 27
temp = 27
method = modified trap
.OP point found by inspection.
Total elapsed time: 0.084 seconds.

