LTspice 24.0.12 for Windows
Circuit: * C:\Users\Dell\Documents\LTspice\projects\DC_operating_point_to_test_dc_output\DC_operating_point_to_test_dc_output.asc
Start Time: Sat Jun 14 12:49:07 2025
solver = Normal
Maximum thread count: 4
tnom = 27
temp = 27
method = modified trap
Direct Newton iteration for .op point succeeded.
Total elapsed time: 0.064 seconds.

