LTspice 24.0.12 for Windows
Circuit: * C:\Users\Dell\Documents\LTspice\projects\MIT_power_electronics_spring_2023\lecture_5_boost_converter\lecture_5_boost_converter.asc
Start Time: Sat Jun 14 12:59:18 2025
solver = Normal
Maximum thread count: 4
tnom = 27
temp = 27
method = modified trap
Limiting rise time of source v1 to 1e-05
Limiting fall time of source v1 to 1e-05
Direct Newton iteration for .op point succeeded.
Total elapsed time: 3.167 seconds.

