LTspice 24.0.12 for Windows
Circuit: * C:\Users\Dell\Documents\LTspice\projects\transient_analysis_LTC3565\transient_analysis_LTC3565.asc
Start Time: Sat Jun 14 12:57:27 2025
solver = Normal
Maximum thread count: 4
tnom = 27
temp = 27
method = modified trap
Direct Newton iteration for .op point succeeded.
Total elapsed time: 4.702 seconds.

