LTspice 24.0.12 for Windows
Circuit: * C:\Users\rgraholskis2\Documents\LTspice\SOAtherm_NMOS_example\LTC4260-Example.asc
Start Time: Thu Aug  1 11:36:57 2024
solver = Normal
Maximum thread count: 16



v4: Removing PWL point (1.2,0)
v9: Removing PWL point (1,3.1)
v1: Removing PWL point (1.8,60)
Direct Newton iteration for .op point succeeded.
Ignoring empty pin current: Ix(u1:3)
Ignoring empty pin current: Ix(u1:8)
Ignoring empty pin current: Ix(u1:9)
Ignoring empty pin current: Ix(u1:10)
Ignoring empty pin current: Ix(u1:11)
Ignoring empty pin current: Ix(u1:13)
Ignoring empty pin current: Ix(u1:15)
Ignoring empty pin current: Ix(u1:16)
Ignoring empty pin current: Ix(u1:17)
Ignoring empty pin current: Ix(u1:21)
Ignoring empty pin current: Ix(u1:22)
Ignoring empty pin current: Ix(u1:3)
Ignoring empty pin current: Ix(u1:8)
Ignoring empty pin current: Ix(u1:9)
Ignoring empty pin current: Ix(u1:10)
Ignoring empty pin current: Ix(u1:11)
Ignoring empty pin current: Ix(u1:13)
Ignoring empty pin current: Ix(u1:15)
Ignoring empty pin current: Ix(u1:16)
Ignoring empty pin current: Ix(u1:17)
Ignoring empty pin current: Ix(u1:21)
Ignoring empty pin current: Ix(u1:22)
.step rload=1



.step rload=10



.step rload=50
tnom = 27
temp = 27
method = modified trap
.step rload=100
Total elapsed time: 16.688 seconds.

