LTspice 24.0.12 for Windows
Circuit: * C:\Users\Dell\Documents\LTspice\projects\nmosfet_back_to_back_common_source\nmosfet_back_to_back_common_source.asc
Start Time: Sat Jun 14 16:58:24 2025
solver = Normal
Maximum thread count: 4
tnom = 27
temp = 27
method = modified trap
WARNING: Node N002 is floating.

Direct Newton iteration for .op point succeeded.
Total elapsed time: 0.326 seconds.

