LTspice 24.0.12 for Windows
Circuit: * C:\Users\Dell\Documents\LTspice\projects\MIT_power_electronics_spring_2023\lecture_3_load_regulation\Draft1.asc
Start Time: Sun Oct  6 12:23:07 2024
solver = Normal
Maximum thread count: 4
tnom = 27
temp = 27
method = modified trap
.OP point found by inspection.
Total elapsed time: 0.221 seconds.

