LTspice 24.0.12 for Windows
Circuit: * C:\Users\Dell\Documents\LTspice\projects\MIT_power_electronics_spring_2023\lecture_3_load_regulation\lecture_3_load_regulation.asc
Start Time: Tue Feb  4 21:06:30 2025
solver = Normal
Maximum thread count: 4
tnom = 27
temp = 27
method = modified trap
.OP point found by inspection.
Total elapsed time: 0.399 seconds.

