LTspice 24.0.12 for Windows
Circuit: * C:\Users\Dell\Documents\LTspice\projects\DC_transfer\DC_transfer.asc
Start Time: Sat Jun 14 12:54:47 2025
solver = Normal
Maximum thread count: 4
tnom = 27
temp = 27
method = modified trap
Instance "m:u1:1": Length shorter than recommended for a level 1 MOSFET.
Instance "m:u1:8": Length shorter than recommended for a level 1 MOSFET.
Instance "m:u1:2": Length shorter than recommended for a level 1 MOSFET.
Instance "m:u1:3": Length shorter than recommended for a level 1 MOSFET.
Instance "m:u1:4": Length shorter than recommended for a level 1 MOSFET.
Instance "m:u1:5": Length shorter than recommended for a level 1 MOSFET.
Instance "m:u1:18": Length shorter than recommended for a level 1 MOSFET.
Instance "m:u1:19": Length shorter than recommended for a level 1 MOSFET.
Instance "m:u1:23": Length shorter than recommended for a level 1 MOSFET.
Instance "m:u1:16": Length shorter than recommended for a level 1 MOSFET.
Instance "m:u1:17": Length shorter than recommended for a level 1 MOSFET.
Instance "m:u1:21": Length shorter than recommended for a level 1 MOSFET.
Instance "m:u1:22": Length shorter than recommended for a level 1 MOSFET.
Direct Newton iteration failed to find .op point.  (Use ".option noopiter" to skip.)
Starting Gmin stepping
Gmin = 10
Gmin = 1.07374
Gmin = 0.115292
Gmin = 0.0123794
Gmin = 0.00132923
Gmin = 0.000142725
Gmin = 1.5325e-05
Gmin = 1.6455e-06
vernier = 0.5
vernier = 0.25
vernier = 0.125
Gmin = 6.34352e-07
vernier = 0.0625
vernier = 0.0833333
Gmin = 5.4056e-07
vernier = 0.111111
vernier = 0.148148
Gmin = 4.09214e-07
vernier = 0.197531
Gmin = 2.64954e-07
vernier = 0.263374
vernier = 0.351165
Gmin = 1.2907e-07
vernier = 0.46822
vernier = 0.624294
Gmin = 4.20066e-08
vernier = 0.832392
Gmin = 7.56419e-09
vernier = 1
Gmin = 8.12199e-10
Gmin = 8.72092e-11
Gmin = 9.36402e-12
Gmin = 1.00545e-12
Gmin = 1.0796e-13
Gmin = 0
Gmin stepping succeeded in finding the operating point.

Total elapsed time: 0.254 seconds.

