LTspice 24.0.12 for Windows
Circuit: * C:\Users\rgraholskis2\Documents\LTspice\test.asc
Start Time: Tue Jul 30 10:18:30 2024
solver = Normal
Maximum thread count: 16
tnom = 27
temp = 27
method = modified trap
.OP point found by inspection.
Total elapsed time: 0.164 seconds.

