LTspice 24.0.12 for Windows
Circuit: * C:\Users\rgraholskis2\Documents\LTspice\projects\MIT_power_electronics_spring_2023\lecture_5_buck_converter\Draft3.asc
Start Time: Thu Aug 29 15:40:37 2024
solver = Normal
Maximum thread count: 16
tnom = 27
temp = 27
method = modified trap
Limiting rise time of source v2 to 5e-06
Limiting fall time of source v2 to 5e-06
Direct Newton iteration for .op point succeeded.
Total elapsed time: 0.240 seconds.

