LTspice 24.0.12 for Windows
Circuit: * C:\Users\Dell\Documents\LTspice\projects\MIT_power_electronics_spring_2023\lecture_5_buck_converter\lecture_5_buck_converter.asc
Start Time: Sat Jun 14 12:58:39 2025
solver = Normal
Maximum thread count: 4
tnom = 27
temp = 27
method = modified trap
Limiting rise time of source v1 to 5e-06
Limiting fall time of source v1 to 5e-06
Direct Newton iteration for .op point succeeded.
Total elapsed time: 0.552 seconds.

