LTspice 24.0.12 for Windows
Circuit: * C:\Users\Dell\Documents\LTspice\projects\AC_analysis_with_three_pole_filter\AC_analysis_with_three_pole_filter.asc
Start Time: Sat Jun 14 12:46:53 2025
solver = Normal
Maximum thread count: 4



Direct Newton iteration failed to find .op point.  (Use ".option noopiter" to skip.)
Starting Gmin stepping
Gmin = 10
Gmin = 1.07374
vernier = 0.5
vernier = 0.25
vernier = 0.125
vernier = 0.0625
vernier = 0.03125
Gmin = 1.0412
vernier = 0.015625
vernier = 0.0078125
Gmin = 1.0132
vernier = 0.00390625
vernier = 0.00195312
Gmin = 1.00827
vernier = 0.00260417
vernier = 0.00130208
Gmin = 1.00515
vernier = 0.000651042
vernier = 0.000868055
vernier = 0.000434028
Gmin = 1.00434
vernier = 0.000578703
vernier = 0.000434027
Gmin = 1.00339
Gmin = 0
Gmin stepping failed

Starting source stepping with srcstepmethod=0
Source Step = 3.0303%
Source Step = 10.2273%
Source Step = 12.1212%
Source Step = 14.0152%
Source Step = 15.9091%
Source Step = 17.803%
vernier = 0.09375
Source Step = 19.7917%
Source Step = 22.6326%
Source Step = 25.4735%
Source Step = 28.3144%
Source Step = 31.1553%
Source Step = 33.9962%
vernier = 0.140625
Source Step = 38.2576%
Source Step = 42.5189%
Source Step = 46.7803%
Source Step = 51.0417%
Source Step = 55.303%
vernier = 0.210938
Source Step = 61.482%
Source Step = 67.8741%
Source Step = 74.2661%
Source Step = 80.6581%
Source Step = 87.0502%
vernier = 0.316406
Source Step = 95.9991%
Source stepping succeeded in finding the operating point.

.step x=0



.step x=5e-07



.step x=1e-06



.step x=1.5e-06
tnom = 27
temp = 27
method = modified trap
.step x=2e-06
Total elapsed time: 1.547 seconds.

